Version 4.1
SHEET 1 3360 772
WIRE 2128 -256 1792 -256
WIRE 2224 -256 2128 -256
WIRE 2288 -256 2224 -256
WIRE 2480 -256 2352 -256
WIRE 2128 -224 2128 -256
WIRE 2224 -208 2224 -256
WIRE 2480 -208 2480 -256
WIRE 1792 -176 1792 -256
WIRE 2128 -96 2128 -144
WIRE 2176 -96 2128 -96
WIRE 2224 -96 2224 -144
WIRE 2224 -96 2176 -96
WIRE 560 80 64 80
WIRE 720 80 560 80
WIRE 992 80 816 80
WIRE 1200 80 992 80
WIRE 2176 80 1776 80
WIRE 2256 80 2176 80
WIRE 2336 80 2256 80
WIRE 2544 80 2400 80
WIRE 2544 96 2544 80
WIRE 1776 112 1776 80
WIRE 64 128 64 80
WIRE 2176 128 2176 80
WIRE 992 144 992 80
WIRE 2256 144 2256 80
WIRE 560 160 560 80
WIRE 992 176 976 176
WIRE 1104 176 1088 176
WIRE 560 192 544 192
WIRE 672 192 656 192
WIRE 976 208 976 176
WIRE 1104 208 1104 176
WIRE 544 224 544 192
WIRE 672 224 672 192
WIRE 1200 224 1200 160
WIRE 2176 240 2176 208
WIRE 2224 240 2176 240
WIRE 2256 240 2256 208
WIRE 2256 240 2224 240
WIRE 2224 288 2224 240
WIRE 2224 320 2224 288
WIRE 2144 512 1808 512
WIRE 2304 512 2144 512
WIRE 2480 512 2368 512
WIRE 2144 544 2144 512
WIRE 1808 560 1808 512
WIRE 2480 560 2480 512
WIRE 1808 656 1808 640
WIRE 2144 672 2144 624
FLAG 544 224 0
FLAG 672 224 0
FLAG 1200 224 0
FLAG 64 208 0
FLAG 656 160 0
FLAG 720 112 0
FLAG 816 112 0
FLAG 976 208 0
FLAG 1104 208 0
FLAG 1088 144 0
FLAG 1776 192 0
FLAG 2224 400 0
FLAG 2544 176 0
FLAG 2480 640 0
FLAG 2480 -128 0
FLAG 2224 288 VDDA
FLAG 2176 -96 VDDA
FLAG 1808 656 0
FLAG 1792 -96 0
FLAG 2144 752 0
FLAG 3024 0 0
FLAG 3120 0 0
SYMBOL voltage 64 112 R0
WINDOW 123 24 124 Left 2
WINDOW 39 24 152 Left 2
SYMATTR InstName V1
SYMATTR Value ""
SYMATTR Value2 AC 1
SYMATTR SpiceLine Rser=50
SYMBOL tline 608 176 R0
SYMATTR InstName T1
SYMATTR Value Td=1.8n Z0=50
SYMBOL res 1184 64 R0
SYMATTR InstName R1
SYMATTR Value 50
SYMBOL tline 768 96 R0
SYMATTR InstName T3
SYMATTR Value Td=1.8n Z0=50
SYMBOL tline 1040 160 R0
SYMATTR InstName T2
SYMATTR Value Td=1.8n Z0=50
SYMBOL voltage 1776 96 R0
WINDOW 123 24 152 Left 2
WINDOW 39 24 124 Left 2
SYMATTR InstName V2
SYMATTR Value ""
SYMATTR Value2 AC 1
SYMATTR SpiceLine Rser=140 Cpar=11p
SYMBOL voltage 2224 304 R0
WINDOW 123 0 0 Left 0
WINDOW 39 0 0 Left 0
SYMATTR InstName V3
SYMATTR Value 3
SYMBOL ind 2160 112 R0
SYMATTR InstName L1
SYMATTR Value 6.2n
SYMBOL cap 2240 144 R0
SYMATTR InstName C1
SYMATTR Value 8.2p
SYMBOL cap 2400 64 R90
WINDOW 0 0 32 VBottom 2
WINDOW 3 32 32 VTop 2
SYMATTR InstName C2
SYMATTR Value 5.6p
SYMBOL res 2528 80 R0
SYMATTR InstName R2
SYMATTR Value 50
SYMBOL tline 3072 -16 R0
SYMATTR InstName T4
SYMATTR Value F=422Meg NL=0.25 Z0=33
SYMBOL ind 2128 528 R0
SYMATTR InstName L2
SYMATTR Value 2.5n
SYMBOL cap 2368 496 R90
WINDOW 0 0 32 VBottom 2
WINDOW 3 32 32 VTop 2
SYMATTR InstName C4
SYMATTR Value 4.7p
SYMBOL ind 2112 -240 R0
SYMATTR InstName L3
SYMATTR Value 20n
SYMBOL cap 2208 -208 R0
SYMATTR InstName C5
SYMATTR Value 2.2p
SYMBOL cap 2352 -272 R90
WINDOW 0 0 32 VBottom 2
WINDOW 3 32 32 VTop 2
SYMATTR InstName C6
SYMATTR Value 5.6p
SYMBOL res 2464 544 R0
SYMATTR InstName R3
SYMATTR Value 50
SYMBOL res 2464 -224 R0
SYMATTR InstName R4
SYMATTR Value 50
SYMBOL voltage 1808 544 R0
WINDOW 123 24 152 Left 2
WINDOW 39 24 124 Left 2
SYMATTR InstName V4
SYMATTR Value ""
SYMATTR Value2 AC 1
SYMATTR SpiceLine Rser=80 Cpar=11p
SYMBOL voltage 1792 -192 R0
WINDOW 123 24 152 Left 2
WINDOW 39 24 124 Left 2
SYMATTR InstName V5
SYMATTR Value ""
SYMATTR Value2 AC 1
SYMATTR SpiceLine Rser=196 Cpar=5p
SYMBOL voltage 2144 656 R0
WINDOW 123 0 0 Left 0
WINDOW 39 0 0 Left 0
SYMATTR InstName V6
SYMATTR Value 3
TEXT 1528 88 Left 2 !.net I(R2) V2
TEXT 888 -168 Left 2 !.ac dec 10000 100Meg 2G
TEXT 2648 120 Left 2 ;610MHz 433MHz
TEXT 1544 600 Left 2 ;.net I(R3) V4
TEXT 2640 608 Left 2 ;???MHz 868MHz
TEXT 2376 248 Left 2 ;.step param Cvar 3p 6p 0.2p
TEXT 2376 288 Left 2 ;.step param Rvar 150 300 2
TEXT 1528 -160 Left 2 ;.net I(R4) V5
